
---------- Begin Simulation Statistics ----------
sim_seconds                                  0.289085                       # Number of seconds simulated
sim_ticks                                289085141000                       # Number of ticks simulated
final_tick                               289085141000                       # Number of ticks from beginning of simulation (restored from checkpoints and never reset)
sim_freq                                 1000000000000                       # Frequency of simulated ticks
host_inst_rate                                1324764                       # Simulator instruction rate (inst/s)
host_op_rate                                  2168360                       # Simulator op (including micro ops) rate (op/s)
host_tick_rate                             2675828549                       # Simulator tick rate (ticks/s)
host_mem_usage                                 650328                       # Number of bytes of host memory used
host_seconds                                   108.04                       # Real time elapsed on the host
sim_insts                                   143121817                       # Number of instructions simulated
sim_ops                                     234260417                       # Number of ops (including micro ops) simulated
system.voltage_domain.voltage                       1                       # Voltage in Volts
system.clk_domain.clock                          1000                       # Clock period in ticks
system.mem_ctrls.pwrStateResidencyTicks::UNDEFINED 289085141000                       # Cumulative time (in ticks) in various power states
system.mem_ctrls.bytes_read::cpu.inst           22784                       # Number of bytes read from this memory
system.mem_ctrls.bytes_read::cpu.data         1608000                       # Number of bytes read from this memory
system.mem_ctrls.bytes_read::total            1630784                       # Number of bytes read from this memory
system.mem_ctrls.bytes_inst_read::cpu.inst        22784                       # Number of instructions bytes read from this memory
system.mem_ctrls.bytes_inst_read::total         22784                       # Number of instructions bytes read from this memory
system.mem_ctrls.bytes_written::writebacks       551424                       # Number of bytes written to this memory
system.mem_ctrls.bytes_written::total          551424                       # Number of bytes written to this memory
system.mem_ctrls.num_reads::cpu.inst              356                       # Number of read requests responded to by this memory
system.mem_ctrls.num_reads::cpu.data            25125                       # Number of read requests responded to by this memory
system.mem_ctrls.num_reads::total               25481                       # Number of read requests responded to by this memory
system.mem_ctrls.num_writes::writebacks          8616                       # Number of write requests responded to by this memory
system.mem_ctrls.num_writes::total               8616                       # Number of write requests responded to by this memory
system.mem_ctrls.bw_read::cpu.inst              78814                       # Total read bandwidth from this memory (bytes/s)
system.mem_ctrls.bw_read::cpu.data            5562375                       # Total read bandwidth from this memory (bytes/s)
system.mem_ctrls.bw_read::total               5641189                       # Total read bandwidth from this memory (bytes/s)
system.mem_ctrls.bw_inst_read::cpu.inst         78814                       # Instruction read bandwidth from this memory (bytes/s)
system.mem_ctrls.bw_inst_read::total            78814                       # Instruction read bandwidth from this memory (bytes/s)
system.mem_ctrls.bw_write::writebacks         1907480                       # Write bandwidth from this memory (bytes/s)
system.mem_ctrls.bw_write::total              1907480                       # Write bandwidth from this memory (bytes/s)
system.mem_ctrls.bw_total::writebacks         1907480                       # Total bandwidth to/from this memory (bytes/s)
system.mem_ctrls.bw_total::cpu.inst             78814                       # Total bandwidth to/from this memory (bytes/s)
system.mem_ctrls.bw_total::cpu.data           5562375                       # Total bandwidth to/from this memory (bytes/s)
system.mem_ctrls.bw_total::total              7548669                       # Total bandwidth to/from this memory (bytes/s)
system.pwrStateResidencyTicks::UNDEFINED 289085141000                       # Cumulative time (in ticks) in various power states
system.cpu_voltage_domain.voltage                   1                       # Voltage in Volts
system.cpu_clk_domain.clock                       500                       # Clock period in ticks
system.cpu.dtb.walker.pwrStateResidencyTicks::UNDEFINED 289085141000                       # Cumulative time (in ticks) in various power states
system.cpu.dtb.rdAccesses                    67629517                       # TLB accesses on read requests
system.cpu.dtb.wrAccesses                    18488677                       # TLB accesses on write requests
system.cpu.dtb.rdMisses                          1348                       # TLB misses on read requests
system.cpu.dtb.wrMisses                           301                       # TLB misses on write requests
system.cpu.apic_clk_domain.clock                 8000                       # Clock period in ticks
system.cpu.interrupts.pwrStateResidencyTicks::UNDEFINED 289085141000                       # Cumulative time (in ticks) in various power states
system.cpu.itb.walker.pwrStateResidencyTicks::UNDEFINED 289085141000                       # Cumulative time (in ticks) in various power states
system.cpu.itb.rdAccesses                           0                       # TLB accesses on read requests
system.cpu.itb.wrAccesses                   191503628                       # TLB accesses on write requests
system.cpu.itb.rdMisses                             0                       # TLB misses on read requests
system.cpu.itb.wrMisses                            37                       # TLB misses on write requests
system.cpu.workload.numSyscalls                     9                       # Number of system calls
system.cpu.pwrStateResidencyTicks::ON    289085141000                       # Cumulative time (in ticks) in various power states
system.cpu.numCycles                        578170282                       # number of cpu cycles simulated
system.cpu.numWorkItemsStarted                      0                       # number of work items this cpu started
system.cpu.numWorkItemsCompleted                    0                       # number of work items this cpu completed
system.cpu.committedInsts                   143121817                       # Number of instructions committed
system.cpu.committedOps                     234260417                       # Number of ops (including micro ops) committed
system.cpu.num_int_alu_accesses             232750432                       # Number of integer alu accesses
system.cpu.num_fp_alu_accesses                   1959                       # Number of float alu accesses
system.cpu.num_vec_alu_accesses                     0                       # Number of vector alu accesses
system.cpu.num_func_calls                     2835028                       # number of times a function call or return occured
system.cpu.num_conditional_control_insts     13480721                       # number of instructions that are conditional controls
system.cpu.num_int_insts                    232750432                       # number of integer instructions
system.cpu.num_fp_insts                          1959                       # number of float instructions
system.cpu.num_vec_insts                            0                       # number of vector instructions
system.cpu.num_int_register_reads           522885057                       # number of times the integer registers were read
system.cpu.num_int_register_writes          202716757                       # number of times the integer registers were written
system.cpu.num_fp_register_reads                 3779                       # number of times the floating registers were read
system.cpu.num_fp_register_writes                1484                       # number of times the floating registers were written
system.cpu.num_vec_register_reads                   0                       # number of times the vector registers were read
system.cpu.num_vec_register_writes                  0                       # number of times the vector registers were written
system.cpu.num_cc_register_reads             86823028                       # number of times the CC registers were read
system.cpu.num_cc_register_writes            80174090                       # number of times the CC registers were written
system.cpu.num_mem_refs                      86118189                       # number of memory refs
system.cpu.num_load_insts                    67629513                       # Number of load instructions
system.cpu.num_store_insts                   18488676                       # Number of store instructions
system.cpu.num_idle_cycles                          0                       # Number of idle cycles
system.cpu.num_busy_cycles                  578170282                       # Number of busy cycles
system.cpu.not_idle_fraction                        1                       # Percentage of non-idle cycles
system.cpu.idle_fraction                            0                       # Percentage of idle cycles
system.cpu.Branches                          17608147                       # Number of branches fetched
system.cpu.op_class::No_OpClass                473779      0.20%      0.20% # Class of executed instruction
system.cpu.op_class::IntAlu                 144872759     61.84%     62.04% # Class of executed instruction
system.cpu.op_class::IntMult                        4      0.00%     62.04% # Class of executed instruction
system.cpu.op_class::IntDiv                   2794726      1.19%     63.24% # Class of executed instruction
system.cpu.op_class::FloatAdd                      10      0.00%     63.24% # Class of executed instruction
system.cpu.op_class::FloatCmp                       0      0.00%     63.24% # Class of executed instruction
system.cpu.op_class::FloatCvt                       0      0.00%     63.24% # Class of executed instruction
system.cpu.op_class::FloatMult                      0      0.00%     63.24% # Class of executed instruction
system.cpu.op_class::FloatMultAcc                   0      0.00%     63.24% # Class of executed instruction
system.cpu.op_class::FloatDiv                       0      0.00%     63.24% # Class of executed instruction
system.cpu.op_class::FloatMisc                      0      0.00%     63.24% # Class of executed instruction
system.cpu.op_class::FloatSqrt                      0      0.00%     63.24% # Class of executed instruction
system.cpu.op_class::SimdAdd                      374      0.00%     63.24% # Class of executed instruction
system.cpu.op_class::SimdAddAcc                     0      0.00%     63.24% # Class of executed instruction
system.cpu.op_class::SimdAlu                       68      0.00%     63.24% # Class of executed instruction
system.cpu.op_class::SimdCmp                        0      0.00%     63.24% # Class of executed instruction
system.cpu.op_class::SimdCvt                      108      0.00%     63.24% # Class of executed instruction
system.cpu.op_class::SimdMisc                     214      0.00%     63.24% # Class of executed instruction
system.cpu.op_class::SimdMult                       0      0.00%     63.24% # Class of executed instruction
system.cpu.op_class::SimdMultAcc                    0      0.00%     63.24% # Class of executed instruction
system.cpu.op_class::SimdShift                    186      0.00%     63.24% # Class of executed instruction
system.cpu.op_class::SimdShiftAcc                   0      0.00%     63.24% # Class of executed instruction
system.cpu.op_class::SimdSqrt                       0      0.00%     63.24% # Class of executed instruction
system.cpu.op_class::SimdFloatAdd                   0      0.00%     63.24% # Class of executed instruction
system.cpu.op_class::SimdFloatAlu                   0      0.00%     63.24% # Class of executed instruction
system.cpu.op_class::SimdFloatCmp                   0      0.00%     63.24% # Class of executed instruction
system.cpu.op_class::SimdFloatCvt                   0      0.00%     63.24% # Class of executed instruction
system.cpu.op_class::SimdFloatDiv                   0      0.00%     63.24% # Class of executed instruction
system.cpu.op_class::SimdFloatMisc                  0      0.00%     63.24% # Class of executed instruction
system.cpu.op_class::SimdFloatMult                  0      0.00%     63.24% # Class of executed instruction
system.cpu.op_class::SimdFloatMultAcc               0      0.00%     63.24% # Class of executed instruction
system.cpu.op_class::SimdFloatSqrt                  0      0.00%     63.24% # Class of executed instruction
system.cpu.op_class::MemRead                 67629453     28.87%     92.11% # Class of executed instruction
system.cpu.op_class::MemWrite                18488249      7.89%    100.00% # Class of executed instruction
system.cpu.op_class::FloatMemRead                  60      0.00%    100.00% # Class of executed instruction
system.cpu.op_class::FloatMemWrite                427      0.00%    100.00% # Class of executed instruction
system.cpu.op_class::IprAccess                      0      0.00%    100.00% # Class of executed instruction
system.cpu.op_class::InstPrefetch                   0      0.00%    100.00% # Class of executed instruction
system.cpu.op_class::total                  234260417                       # Class of executed instruction
system.cpu.dcache.tags.pwrStateResidencyTicks::UNDEFINED 289085141000                       # Cumulative time (in ticks) in various power states
system.cpu.dcache.tags.tagsinuse           511.360379                       # Cycle average of tags in use
system.cpu.dcache.tags.total_refs            86118194                       # Total number of references to valid blocks.
system.cpu.dcache.tags.sampled_refs            178301                       # Sample count of references to valid blocks.
system.cpu.dcache.tags.avg_refs            482.993332                       # Average number of references to valid blocks.
system.cpu.dcache.tags.warmup_cycle            766000                       # Cycle when the warmup percentage was hit.
system.cpu.dcache.tags.occ_blocks::cpu.data   511.360379                       # Average occupied blocks per requestor
system.cpu.dcache.tags.occ_percent::cpu.data     0.998751                       # Average percentage of cache occupancy
system.cpu.dcache.tags.occ_percent::total     0.998751                       # Average percentage of cache occupancy
system.cpu.dcache.tags.occ_task_id_blocks::1024          512                       # Occupied blocks per task id
system.cpu.dcache.tags.age_task_id_blocks_1024::0           11                       # Occupied blocks per task id
system.cpu.dcache.tags.age_task_id_blocks_1024::1           16                       # Occupied blocks per task id
system.cpu.dcache.tags.age_task_id_blocks_1024::3          468                       # Occupied blocks per task id
system.cpu.dcache.tags.age_task_id_blocks_1024::4           17                       # Occupied blocks per task id
system.cpu.dcache.tags.occ_task_id_percent::1024            1                       # Percentage of cache occupancy per task id
system.cpu.dcache.tags.tag_accesses         172414689                       # Number of tag accesses
system.cpu.dcache.tags.data_accesses        172414689                       # Number of data accesses
system.cpu.dcache.pwrStateResidencyTicks::UNDEFINED 289085141000                       # Cumulative time (in ticks) in various power states
system.cpu.dcache.ReadReq_hits::cpu.data     67471159                       # number of ReadReq hits
system.cpu.dcache.ReadReq_hits::total        67471159                       # number of ReadReq hits
system.cpu.dcache.WriteReq_hits::cpu.data     18374909                       # number of WriteReq hits
system.cpu.dcache.WriteReq_hits::total       18374909                       # number of WriteReq hits
system.cpu.dcache.demand_hits::cpu.data      85846068                       # number of demand (read+write) hits
system.cpu.dcache.demand_hits::total         85846068                       # number of demand (read+write) hits
system.cpu.dcache.overall_hits::cpu.data     85846068                       # number of overall hits
system.cpu.dcache.overall_hits::total        85846068                       # number of overall hits
system.cpu.dcache.ReadReq_misses::cpu.data       158358                       # number of ReadReq misses
system.cpu.dcache.ReadReq_misses::total        158358                       # number of ReadReq misses
system.cpu.dcache.WriteReq_misses::cpu.data       113768                       # number of WriteReq misses
system.cpu.dcache.WriteReq_misses::total       113768                       # number of WriteReq misses
system.cpu.dcache.demand_misses::cpu.data       272126                       # number of demand (read+write) misses
system.cpu.dcache.demand_misses::total         272126                       # number of demand (read+write) misses
system.cpu.dcache.overall_misses::cpu.data       272126                       # number of overall misses
system.cpu.dcache.overall_misses::total        272126                       # number of overall misses
system.cpu.dcache.ReadReq_miss_latency::cpu.data   7370297000                       # number of ReadReq miss cycles
system.cpu.dcache.ReadReq_miss_latency::total   7370297000                       # number of ReadReq miss cycles
system.cpu.dcache.WriteReq_miss_latency::cpu.data   4290952000                       # number of WriteReq miss cycles
system.cpu.dcache.WriteReq_miss_latency::total   4290952000                       # number of WriteReq miss cycles
system.cpu.dcache.demand_miss_latency::cpu.data  11661249000                       # number of demand (read+write) miss cycles
system.cpu.dcache.demand_miss_latency::total  11661249000                       # number of demand (read+write) miss cycles
system.cpu.dcache.overall_miss_latency::cpu.data  11661249000                       # number of overall miss cycles
system.cpu.dcache.overall_miss_latency::total  11661249000                       # number of overall miss cycles
system.cpu.dcache.ReadReq_accesses::cpu.data     67629517                       # number of ReadReq accesses(hits+misses)
system.cpu.dcache.ReadReq_accesses::total     67629517                       # number of ReadReq accesses(hits+misses)
system.cpu.dcache.WriteReq_accesses::cpu.data     18488677                       # number of WriteReq accesses(hits+misses)
system.cpu.dcache.WriteReq_accesses::total     18488677                       # number of WriteReq accesses(hits+misses)
system.cpu.dcache.demand_accesses::cpu.data     86118194                       # number of demand (read+write) accesses
system.cpu.dcache.demand_accesses::total     86118194                       # number of demand (read+write) accesses
system.cpu.dcache.overall_accesses::cpu.data     86118194                       # number of overall (read+write) accesses
system.cpu.dcache.overall_accesses::total     86118194                       # number of overall (read+write) accesses
system.cpu.dcache.ReadReq_miss_rate::cpu.data     0.002342                       # miss rate for ReadReq accesses
system.cpu.dcache.ReadReq_miss_rate::total     0.002342                       # miss rate for ReadReq accesses
system.cpu.dcache.WriteReq_miss_rate::cpu.data     0.006153                       # miss rate for WriteReq accesses
system.cpu.dcache.WriteReq_miss_rate::total     0.006153                       # miss rate for WriteReq accesses
system.cpu.dcache.demand_miss_rate::cpu.data     0.003160                       # miss rate for demand accesses
system.cpu.dcache.demand_miss_rate::total     0.003160                       # miss rate for demand accesses
system.cpu.dcache.overall_miss_rate::cpu.data     0.003160                       # miss rate for overall accesses
system.cpu.dcache.overall_miss_rate::total     0.003160                       # miss rate for overall accesses
system.cpu.dcache.ReadReq_avg_miss_latency::cpu.data 46541.993458                       # average ReadReq miss latency
system.cpu.dcache.ReadReq_avg_miss_latency::total 46541.993458                       # average ReadReq miss latency
system.cpu.dcache.WriteReq_avg_miss_latency::cpu.data 37716.686590                       # average WriteReq miss latency
system.cpu.dcache.WriteReq_avg_miss_latency::total 37716.686590                       # average WriteReq miss latency
system.cpu.dcache.demand_avg_miss_latency::cpu.data 42852.388232                       # average overall miss latency
system.cpu.dcache.demand_avg_miss_latency::total 42852.388232                       # average overall miss latency
system.cpu.dcache.overall_avg_miss_latency::cpu.data 42852.388232                       # average overall miss latency
system.cpu.dcache.overall_avg_miss_latency::total 42852.388232                       # average overall miss latency
system.cpu.dcache.blocked_cycles::no_mshrs            0                       # number of cycles access was blocked
system.cpu.dcache.blocked_cycles::no_targets            0                       # number of cycles access was blocked
system.cpu.dcache.blocked::no_mshrs                 0                       # number of cycles access was blocked
system.cpu.dcache.blocked::no_targets               0                       # number of cycles access was blocked
system.cpu.dcache.avg_blocked_cycles::no_mshrs          nan                       # average number of cycles each access was blocked
system.cpu.dcache.avg_blocked_cycles::no_targets          nan                       # average number of cycles each access was blocked
system.cpu.dcache.writebacks::writebacks       166441                       # number of writebacks
system.cpu.dcache.writebacks::total            166441                       # number of writebacks
system.cpu.dcache.ReadReq_mshr_misses::cpu.data       158358                       # number of ReadReq MSHR misses
system.cpu.dcache.ReadReq_mshr_misses::total       158358                       # number of ReadReq MSHR misses
system.cpu.dcache.WriteReq_mshr_misses::cpu.data       113768                       # number of WriteReq MSHR misses
system.cpu.dcache.WriteReq_mshr_misses::total       113768                       # number of WriteReq MSHR misses
system.cpu.dcache.demand_mshr_misses::cpu.data       272126                       # number of demand (read+write) MSHR misses
system.cpu.dcache.demand_mshr_misses::total       272126                       # number of demand (read+write) MSHR misses
system.cpu.dcache.overall_mshr_misses::cpu.data       272126                       # number of overall MSHR misses
system.cpu.dcache.overall_mshr_misses::total       272126                       # number of overall MSHR misses
system.cpu.dcache.ReadReq_mshr_miss_latency::cpu.data   7211939000                       # number of ReadReq MSHR miss cycles
system.cpu.dcache.ReadReq_mshr_miss_latency::total   7211939000                       # number of ReadReq MSHR miss cycles
system.cpu.dcache.WriteReq_mshr_miss_latency::cpu.data   4177184000                       # number of WriteReq MSHR miss cycles
system.cpu.dcache.WriteReq_mshr_miss_latency::total   4177184000                       # number of WriteReq MSHR miss cycles
system.cpu.dcache.demand_mshr_miss_latency::cpu.data  11389123000                       # number of demand (read+write) MSHR miss cycles
system.cpu.dcache.demand_mshr_miss_latency::total  11389123000                       # number of demand (read+write) MSHR miss cycles
system.cpu.dcache.overall_mshr_miss_latency::cpu.data  11389123000                       # number of overall MSHR miss cycles
system.cpu.dcache.overall_mshr_miss_latency::total  11389123000                       # number of overall MSHR miss cycles
system.cpu.dcache.ReadReq_mshr_miss_rate::cpu.data     0.002342                       # mshr miss rate for ReadReq accesses
system.cpu.dcache.ReadReq_mshr_miss_rate::total     0.002342                       # mshr miss rate for ReadReq accesses
system.cpu.dcache.WriteReq_mshr_miss_rate::cpu.data     0.006153                       # mshr miss rate for WriteReq accesses
system.cpu.dcache.WriteReq_mshr_miss_rate::total     0.006153                       # mshr miss rate for WriteReq accesses
system.cpu.dcache.demand_mshr_miss_rate::cpu.data     0.003160                       # mshr miss rate for demand accesses
system.cpu.dcache.demand_mshr_miss_rate::total     0.003160                       # mshr miss rate for demand accesses
system.cpu.dcache.overall_mshr_miss_rate::cpu.data     0.003160                       # mshr miss rate for overall accesses
system.cpu.dcache.overall_mshr_miss_rate::total     0.003160                       # mshr miss rate for overall accesses
system.cpu.dcache.ReadReq_avg_mshr_miss_latency::cpu.data 45541.993458                       # average ReadReq mshr miss latency
system.cpu.dcache.ReadReq_avg_mshr_miss_latency::total 45541.993458                       # average ReadReq mshr miss latency
system.cpu.dcache.WriteReq_avg_mshr_miss_latency::cpu.data 36716.686590                       # average WriteReq mshr miss latency
system.cpu.dcache.WriteReq_avg_mshr_miss_latency::total 36716.686590                       # average WriteReq mshr miss latency
system.cpu.dcache.demand_avg_mshr_miss_latency::cpu.data 41852.388232                       # average overall mshr miss latency
system.cpu.dcache.demand_avg_mshr_miss_latency::total 41852.388232                       # average overall mshr miss latency
system.cpu.dcache.overall_avg_mshr_miss_latency::cpu.data 41852.388232                       # average overall mshr miss latency
system.cpu.dcache.overall_avg_mshr_miss_latency::total 41852.388232                       # average overall mshr miss latency
system.cpu.dcache.replacements                 177789                       # number of replacements
system.cpu.dtb_walker_cache.tags.pwrStateResidencyTicks::UNDEFINED 289085141000                       # Cumulative time (in ticks) in various power states
system.cpu.dtb_walker_cache.tags.tagsinuse            0                       # Cycle average of tags in use
system.cpu.dtb_walker_cache.tags.total_refs            0                       # Total number of references to valid blocks.
system.cpu.dtb_walker_cache.tags.sampled_refs            0                       # Sample count of references to valid blocks.
system.cpu.dtb_walker_cache.tags.avg_refs          nan                       # Average number of references to valid blocks.
system.cpu.dtb_walker_cache.tags.warmup_cycle            0                       # Cycle when the warmup percentage was hit.
system.cpu.dtb_walker_cache.tags.tag_accesses            0                       # Number of tag accesses
system.cpu.dtb_walker_cache.tags.data_accesses            0                       # Number of data accesses
system.cpu.dtb_walker_cache.pwrStateResidencyTicks::UNDEFINED 289085141000                       # Cumulative time (in ticks) in various power states
system.cpu.dtb_walker_cache.blocked_cycles::no_mshrs            0                       # number of cycles access was blocked
system.cpu.dtb_walker_cache.blocked_cycles::no_targets            0                       # number of cycles access was blocked
system.cpu.dtb_walker_cache.blocked::no_mshrs            0                       # number of cycles access was blocked
system.cpu.dtb_walker_cache.blocked::no_targets            0                       # number of cycles access was blocked
system.cpu.dtb_walker_cache.avg_blocked_cycles::no_mshrs          nan                       # average number of cycles each access was blocked
system.cpu.dtb_walker_cache.avg_blocked_cycles::no_targets          nan                       # average number of cycles each access was blocked
system.cpu.dtb_walker_cache.replacements            0                       # number of replacements
system.cpu.icache.tags.pwrStateResidencyTicks::UNDEFINED 289085141000                       # Cumulative time (in ticks) in various power states
system.cpu.icache.tags.tagsinuse           282.422695                       # Cycle average of tags in use
system.cpu.icache.tags.total_refs           191503628                       # Total number of references to valid blocks.
system.cpu.icache.tags.sampled_refs               356                       # Sample count of references to valid blocks.
system.cpu.icache.tags.avg_refs          537931.539326                       # Average number of references to valid blocks.
system.cpu.icache.tags.warmup_cycle            446000                       # Cycle when the warmup percentage was hit.
system.cpu.icache.tags.occ_blocks::cpu.inst   282.422695                       # Average occupied blocks per requestor
system.cpu.icache.tags.occ_percent::cpu.inst     0.551607                       # Average percentage of cache occupancy
system.cpu.icache.tags.occ_percent::total     0.551607                       # Average percentage of cache occupancy
system.cpu.icache.tags.occ_task_id_blocks::1024          312                       # Occupied blocks per task id
system.cpu.icache.tags.age_task_id_blocks_1024::0           16                       # Occupied blocks per task id
system.cpu.icache.tags.age_task_id_blocks_1024::1           22                       # Occupied blocks per task id
system.cpu.icache.tags.age_task_id_blocks_1024::4          274                       # Occupied blocks per task id
system.cpu.icache.tags.occ_task_id_percent::1024     0.609375                       # Percentage of cache occupancy per task id
system.cpu.icache.tags.tag_accesses         383007612                       # Number of tag accesses
system.cpu.icache.tags.data_accesses        383007612                       # Number of data accesses
system.cpu.icache.pwrStateResidencyTicks::UNDEFINED 289085141000                       # Cumulative time (in ticks) in various power states
system.cpu.icache.ReadReq_hits::cpu.inst    191503272                       # number of ReadReq hits
system.cpu.icache.ReadReq_hits::total       191503272                       # number of ReadReq hits
system.cpu.icache.demand_hits::cpu.inst     191503272                       # number of demand (read+write) hits
system.cpu.icache.demand_hits::total        191503272                       # number of demand (read+write) hits
system.cpu.icache.overall_hits::cpu.inst    191503272                       # number of overall hits
system.cpu.icache.overall_hits::total       191503272                       # number of overall hits
system.cpu.icache.ReadReq_misses::cpu.inst          356                       # number of ReadReq misses
system.cpu.icache.ReadReq_misses::total           356                       # number of ReadReq misses
system.cpu.icache.demand_misses::cpu.inst          356                       # number of demand (read+write) misses
system.cpu.icache.demand_misses::total            356                       # number of demand (read+write) misses
system.cpu.icache.overall_misses::cpu.inst          356                       # number of overall misses
system.cpu.icache.overall_misses::total           356                       # number of overall misses
system.cpu.icache.ReadReq_miss_latency::cpu.inst     74556000                       # number of ReadReq miss cycles
system.cpu.icache.ReadReq_miss_latency::total     74556000                       # number of ReadReq miss cycles
system.cpu.icache.demand_miss_latency::cpu.inst     74556000                       # number of demand (read+write) miss cycles
system.cpu.icache.demand_miss_latency::total     74556000                       # number of demand (read+write) miss cycles
system.cpu.icache.overall_miss_latency::cpu.inst     74556000                       # number of overall miss cycles
system.cpu.icache.overall_miss_latency::total     74556000                       # number of overall miss cycles
system.cpu.icache.ReadReq_accesses::cpu.inst    191503628                       # number of ReadReq accesses(hits+misses)
system.cpu.icache.ReadReq_accesses::total    191503628                       # number of ReadReq accesses(hits+misses)
system.cpu.icache.demand_accesses::cpu.inst    191503628                       # number of demand (read+write) accesses
system.cpu.icache.demand_accesses::total    191503628                       # number of demand (read+write) accesses
system.cpu.icache.overall_accesses::cpu.inst    191503628                       # number of overall (read+write) accesses
system.cpu.icache.overall_accesses::total    191503628                       # number of overall (read+write) accesses
system.cpu.icache.ReadReq_miss_rate::cpu.inst     0.000002                       # miss rate for ReadReq accesses
system.cpu.icache.ReadReq_miss_rate::total     0.000002                       # miss rate for ReadReq accesses
system.cpu.icache.demand_miss_rate::cpu.inst     0.000002                       # miss rate for demand accesses
system.cpu.icache.demand_miss_rate::total     0.000002                       # miss rate for demand accesses
system.cpu.icache.overall_miss_rate::cpu.inst     0.000002                       # miss rate for overall accesses
system.cpu.icache.overall_miss_rate::total     0.000002                       # miss rate for overall accesses
system.cpu.icache.ReadReq_avg_miss_latency::cpu.inst 209426.966292                       # average ReadReq miss latency
system.cpu.icache.ReadReq_avg_miss_latency::total 209426.966292                       # average ReadReq miss latency
system.cpu.icache.demand_avg_miss_latency::cpu.inst 209426.966292                       # average overall miss latency
system.cpu.icache.demand_avg_miss_latency::total 209426.966292                       # average overall miss latency
system.cpu.icache.overall_avg_miss_latency::cpu.inst 209426.966292                       # average overall miss latency
system.cpu.icache.overall_avg_miss_latency::total 209426.966292                       # average overall miss latency
system.cpu.icache.blocked_cycles::no_mshrs            0                       # number of cycles access was blocked
system.cpu.icache.blocked_cycles::no_targets            0                       # number of cycles access was blocked
system.cpu.icache.blocked::no_mshrs                 0                       # number of cycles access was blocked
system.cpu.icache.blocked::no_targets               0                       # number of cycles access was blocked
system.cpu.icache.avg_blocked_cycles::no_mshrs          nan                       # average number of cycles each access was blocked
system.cpu.icache.avg_blocked_cycles::no_targets          nan                       # average number of cycles each access was blocked
system.cpu.icache.writebacks::writebacks           44                       # number of writebacks
system.cpu.icache.writebacks::total                44                       # number of writebacks
system.cpu.icache.ReadReq_mshr_misses::cpu.inst          356                       # number of ReadReq MSHR misses
system.cpu.icache.ReadReq_mshr_misses::total          356                       # number of ReadReq MSHR misses
system.cpu.icache.demand_mshr_misses::cpu.inst          356                       # number of demand (read+write) MSHR misses
system.cpu.icache.demand_mshr_misses::total          356                       # number of demand (read+write) MSHR misses
system.cpu.icache.overall_mshr_misses::cpu.inst          356                       # number of overall MSHR misses
system.cpu.icache.overall_mshr_misses::total          356                       # number of overall MSHR misses
system.cpu.icache.ReadReq_mshr_miss_latency::cpu.inst     74200000                       # number of ReadReq MSHR miss cycles
system.cpu.icache.ReadReq_mshr_miss_latency::total     74200000                       # number of ReadReq MSHR miss cycles
system.cpu.icache.demand_mshr_miss_latency::cpu.inst     74200000                       # number of demand (read+write) MSHR miss cycles
system.cpu.icache.demand_mshr_miss_latency::total     74200000                       # number of demand (read+write) MSHR miss cycles
system.cpu.icache.overall_mshr_miss_latency::cpu.inst     74200000                       # number of overall MSHR miss cycles
system.cpu.icache.overall_mshr_miss_latency::total     74200000                       # number of overall MSHR miss cycles
system.cpu.icache.ReadReq_mshr_miss_rate::cpu.inst     0.000002                       # mshr miss rate for ReadReq accesses
system.cpu.icache.ReadReq_mshr_miss_rate::total     0.000002                       # mshr miss rate for ReadReq accesses
system.cpu.icache.demand_mshr_miss_rate::cpu.inst     0.000002                       # mshr miss rate for demand accesses
system.cpu.icache.demand_mshr_miss_rate::total     0.000002                       # mshr miss rate for demand accesses
system.cpu.icache.overall_mshr_miss_rate::cpu.inst     0.000002                       # mshr miss rate for overall accesses
system.cpu.icache.overall_mshr_miss_rate::total     0.000002                       # mshr miss rate for overall accesses
system.cpu.icache.ReadReq_avg_mshr_miss_latency::cpu.inst 208426.966292                       # average ReadReq mshr miss latency
system.cpu.icache.ReadReq_avg_mshr_miss_latency::total 208426.966292                       # average ReadReq mshr miss latency
system.cpu.icache.demand_avg_mshr_miss_latency::cpu.inst 208426.966292                       # average overall mshr miss latency
system.cpu.icache.demand_avg_mshr_miss_latency::total 208426.966292                       # average overall mshr miss latency
system.cpu.icache.overall_avg_mshr_miss_latency::cpu.inst 208426.966292                       # average overall mshr miss latency
system.cpu.icache.overall_avg_mshr_miss_latency::total 208426.966292                       # average overall mshr miss latency
system.cpu.icache.replacements                     44                       # number of replacements
system.cpu.itb_walker_cache.tags.pwrStateResidencyTicks::UNDEFINED 289085141000                       # Cumulative time (in ticks) in various power states
system.cpu.itb_walker_cache.tags.tagsinuse            0                       # Cycle average of tags in use
system.cpu.itb_walker_cache.tags.total_refs            0                       # Total number of references to valid blocks.
system.cpu.itb_walker_cache.tags.sampled_refs            0                       # Sample count of references to valid blocks.
system.cpu.itb_walker_cache.tags.avg_refs          nan                       # Average number of references to valid blocks.
system.cpu.itb_walker_cache.tags.warmup_cycle            0                       # Cycle when the warmup percentage was hit.
system.cpu.itb_walker_cache.tags.tag_accesses            0                       # Number of tag accesses
system.cpu.itb_walker_cache.tags.data_accesses            0                       # Number of data accesses
system.cpu.itb_walker_cache.pwrStateResidencyTicks::UNDEFINED 289085141000                       # Cumulative time (in ticks) in various power states
system.cpu.itb_walker_cache.blocked_cycles::no_mshrs            0                       # number of cycles access was blocked
system.cpu.itb_walker_cache.blocked_cycles::no_targets            0                       # number of cycles access was blocked
system.cpu.itb_walker_cache.blocked::no_mshrs            0                       # number of cycles access was blocked
system.cpu.itb_walker_cache.blocked::no_targets            0                       # number of cycles access was blocked
system.cpu.itb_walker_cache.avg_blocked_cycles::no_mshrs          nan                       # average number of cycles each access was blocked
system.cpu.itb_walker_cache.avg_blocked_cycles::no_targets          nan                       # average number of cycles each access was blocked
system.cpu.itb_walker_cache.replacements            0                       # number of replacements
system.l2.tags.pwrStateResidencyTicks::UNDEFINED 289085141000                       # Cumulative time (in ticks) in various power states
system.l2.tags.tagsinuse                  2039.087750                       # Cycle average of tags in use
system.l2.tags.total_refs                      450315                       # Total number of references to valid blocks.
system.l2.tags.sampled_refs                    130538                       # Sample count of references to valid blocks.
system.l2.tags.avg_refs                      3.449685                       # Average number of references to valid blocks.
system.l2.tags.warmup_cycle                    435500                       # Cycle when the warmup percentage was hit.
system.l2.tags.occ_blocks::writebacks        1.162112                       # Average occupied blocks per requestor
system.l2.tags.occ_blocks::cpu.inst          3.438189                       # Average occupied blocks per requestor
system.l2.tags.occ_blocks::cpu.data       2034.487449                       # Average occupied blocks per requestor
system.l2.tags.occ_percent::writebacks       0.000567                       # Average percentage of cache occupancy
system.l2.tags.occ_percent::cpu.inst         0.001679                       # Average percentage of cache occupancy
system.l2.tags.occ_percent::cpu.data         0.993402                       # Average percentage of cache occupancy
system.l2.tags.occ_percent::total            0.995648                       # Average percentage of cache occupancy
system.l2.tags.occ_task_id_blocks::1024          2048                       # Occupied blocks per task id
system.l2.tags.age_task_id_blocks_1024::0           33                       # Occupied blocks per task id
system.l2.tags.age_task_id_blocks_1024::1           41                       # Occupied blocks per task id
system.l2.tags.age_task_id_blocks_1024::3          723                       # Occupied blocks per task id
system.l2.tags.age_task_id_blocks_1024::4         1251                       # Occupied blocks per task id
system.l2.tags.occ_task_id_percent::1024            1                       # Percentage of cache occupancy per task id
system.l2.tags.tag_accesses                   3733058                       # Number of tag accesses
system.l2.tags.data_accesses                  3733058                       # Number of data accesses
system.l2.pwrStateResidencyTicks::UNDEFINED 289085141000                       # Cumulative time (in ticks) in various power states
system.l2.WritebackDirty_hits::writebacks       166441                       # number of WritebackDirty hits
system.l2.WritebackDirty_hits::total           166441                       # number of WritebackDirty hits
system.l2.WritebackClean_hits::writebacks           44                       # number of WritebackClean hits
system.l2.WritebackClean_hits::total               44                       # number of WritebackClean hits
system.l2.UpgradeReq_hits::cpu.data             93825                       # number of UpgradeReq hits
system.l2.UpgradeReq_hits::total                93825                       # number of UpgradeReq hits
system.l2.ReadExReq_hits::cpu.data                860                       # number of ReadExReq hits
system.l2.ReadExReq_hits::total                   860                       # number of ReadExReq hits
system.l2.ReadSharedReq_hits::cpu.data          47301                       # number of ReadSharedReq hits
system.l2.ReadSharedReq_hits::total             47301                       # number of ReadSharedReq hits
system.l2.demand_hits::cpu.data                 48161                       # number of demand (read+write) hits
system.l2.demand_hits::total                    48161                       # number of demand (read+write) hits
system.l2.overall_hits::cpu.data                48161                       # number of overall hits
system.l2.overall_hits::total                   48161                       # number of overall hits
system.l2.ReadExReq_misses::cpu.data            19083                       # number of ReadExReq misses
system.l2.ReadExReq_misses::total               19083                       # number of ReadExReq misses
system.l2.ReadCleanReq_misses::cpu.inst           356                       # number of ReadCleanReq misses
system.l2.ReadCleanReq_misses::total              356                       # number of ReadCleanReq misses
system.l2.ReadSharedReq_misses::cpu.data       111057                       # number of ReadSharedReq misses
system.l2.ReadSharedReq_misses::total          111057                       # number of ReadSharedReq misses
system.l2.demand_misses::cpu.inst                 356                       # number of demand (read+write) misses
system.l2.demand_misses::cpu.data              130140                       # number of demand (read+write) misses
system.l2.demand_misses::total                 130496                       # number of demand (read+write) misses
system.l2.overall_misses::cpu.inst                356                       # number of overall misses
system.l2.overall_misses::cpu.data             130140                       # number of overall misses
system.l2.overall_misses::total                130496                       # number of overall misses
system.l2.ReadExReq_miss_latency::cpu.data   3012339000                       # number of ReadExReq miss cycles
system.l2.ReadExReq_miss_latency::total    3012339000                       # number of ReadExReq miss cycles
system.l2.ReadCleanReq_miss_latency::cpu.inst     73662000                       # number of ReadCleanReq miss cycles
system.l2.ReadCleanReq_miss_latency::total     73662000                       # number of ReadCleanReq miss cycles
system.l2.ReadSharedReq_miss_latency::cpu.data   6477741500                       # number of ReadSharedReq miss cycles
system.l2.ReadSharedReq_miss_latency::total   6477741500                       # number of ReadSharedReq miss cycles
system.l2.demand_miss_latency::cpu.inst      73662000                       # number of demand (read+write) miss cycles
system.l2.demand_miss_latency::cpu.data    9490080500                       # number of demand (read+write) miss cycles
system.l2.demand_miss_latency::total       9563742500                       # number of demand (read+write) miss cycles
system.l2.overall_miss_latency::cpu.inst     73662000                       # number of overall miss cycles
system.l2.overall_miss_latency::cpu.data   9490080500                       # number of overall miss cycles
system.l2.overall_miss_latency::total      9563742500                       # number of overall miss cycles
system.l2.WritebackDirty_accesses::writebacks       166441                       # number of WritebackDirty accesses(hits+misses)
system.l2.WritebackDirty_accesses::total       166441                       # number of WritebackDirty accesses(hits+misses)
system.l2.WritebackClean_accesses::writebacks           44                       # number of WritebackClean accesses(hits+misses)
system.l2.WritebackClean_accesses::total           44                       # number of WritebackClean accesses(hits+misses)
system.l2.UpgradeReq_accesses::cpu.data         93825                       # number of UpgradeReq accesses(hits+misses)
system.l2.UpgradeReq_accesses::total            93825                       # number of UpgradeReq accesses(hits+misses)
system.l2.ReadExReq_accesses::cpu.data          19943                       # number of ReadExReq accesses(hits+misses)
system.l2.ReadExReq_accesses::total             19943                       # number of ReadExReq accesses(hits+misses)
system.l2.ReadCleanReq_accesses::cpu.inst          356                       # number of ReadCleanReq accesses(hits+misses)
system.l2.ReadCleanReq_accesses::total            356                       # number of ReadCleanReq accesses(hits+misses)
system.l2.ReadSharedReq_accesses::cpu.data       158358                       # number of ReadSharedReq accesses(hits+misses)
system.l2.ReadSharedReq_accesses::total        158358                       # number of ReadSharedReq accesses(hits+misses)
system.l2.demand_accesses::cpu.inst               356                       # number of demand (read+write) accesses
system.l2.demand_accesses::cpu.data            178301                       # number of demand (read+write) accesses
system.l2.demand_accesses::total               178657                       # number of demand (read+write) accesses
system.l2.overall_accesses::cpu.inst              356                       # number of overall (read+write) accesses
system.l2.overall_accesses::cpu.data           178301                       # number of overall (read+write) accesses
system.l2.overall_accesses::total              178657                       # number of overall (read+write) accesses
system.l2.ReadExReq_miss_rate::cpu.data      0.956877                       # miss rate for ReadExReq accesses
system.l2.ReadExReq_miss_rate::total         0.956877                       # miss rate for ReadExReq accesses
system.l2.ReadCleanReq_miss_rate::cpu.inst            1                       # miss rate for ReadCleanReq accesses
system.l2.ReadCleanReq_miss_rate::total             1                       # miss rate for ReadCleanReq accesses
system.l2.ReadSharedReq_miss_rate::cpu.data     0.701303                       # miss rate for ReadSharedReq accesses
system.l2.ReadSharedReq_miss_rate::total     0.701303                       # miss rate for ReadSharedReq accesses
system.l2.demand_miss_rate::cpu.inst                1                       # miss rate for demand accesses
system.l2.demand_miss_rate::cpu.data         0.729889                       # miss rate for demand accesses
system.l2.demand_miss_rate::total            0.730428                       # miss rate for demand accesses
system.l2.overall_miss_rate::cpu.inst               1                       # miss rate for overall accesses
system.l2.overall_miss_rate::cpu.data        0.729889                       # miss rate for overall accesses
system.l2.overall_miss_rate::total           0.730428                       # miss rate for overall accesses
system.l2.ReadExReq_avg_miss_latency::cpu.data 157854.582613                       # average ReadExReq miss latency
system.l2.ReadExReq_avg_miss_latency::total 157854.582613                       # average ReadExReq miss latency
system.l2.ReadCleanReq_avg_miss_latency::cpu.inst 206915.730337                       # average ReadCleanReq miss latency
system.l2.ReadCleanReq_avg_miss_latency::total 206915.730337                       # average ReadCleanReq miss latency
system.l2.ReadSharedReq_avg_miss_latency::cpu.data 58328.079275                       # average ReadSharedReq miss latency
system.l2.ReadSharedReq_avg_miss_latency::total 58328.079275                       # average ReadSharedReq miss latency
system.l2.demand_avg_miss_latency::cpu.inst 206915.730337                       # average overall miss latency
system.l2.demand_avg_miss_latency::cpu.data 72922.087752                       # average overall miss latency
system.l2.demand_avg_miss_latency::total 73287.629506                       # average overall miss latency
system.l2.overall_avg_miss_latency::cpu.inst 206915.730337                       # average overall miss latency
system.l2.overall_avg_miss_latency::cpu.data 72922.087752                       # average overall miss latency
system.l2.overall_avg_miss_latency::total 73287.629506                       # average overall miss latency
system.l2.blocked_cycles::no_mshrs                  0                       # number of cycles access was blocked
system.l2.blocked_cycles::no_targets                0                       # number of cycles access was blocked
system.l2.blocked::no_mshrs                         0                       # number of cycles access was blocked
system.l2.blocked::no_targets                       0                       # number of cycles access was blocked
system.l2.avg_blocked_cycles::no_mshrs            nan                       # average number of cycles each access was blocked
system.l2.avg_blocked_cycles::no_targets          nan                       # average number of cycles each access was blocked
system.l2.writebacks::writebacks               127619                       # number of writebacks
system.l2.writebacks::total                    127619                       # number of writebacks
system.l2.ReadExReq_mshr_misses::cpu.data        19083                       # number of ReadExReq MSHR misses
system.l2.ReadExReq_mshr_misses::total          19083                       # number of ReadExReq MSHR misses
system.l2.ReadCleanReq_mshr_misses::cpu.inst          356                       # number of ReadCleanReq MSHR misses
system.l2.ReadCleanReq_mshr_misses::total          356                       # number of ReadCleanReq MSHR misses
system.l2.ReadSharedReq_mshr_misses::cpu.data       111057                       # number of ReadSharedReq MSHR misses
system.l2.ReadSharedReq_mshr_misses::total       111057                       # number of ReadSharedReq MSHR misses
system.l2.demand_mshr_misses::cpu.inst            356                       # number of demand (read+write) MSHR misses
system.l2.demand_mshr_misses::cpu.data         130140                       # number of demand (read+write) MSHR misses
system.l2.demand_mshr_misses::total            130496                       # number of demand (read+write) MSHR misses
system.l2.overall_mshr_misses::cpu.inst           356                       # number of overall MSHR misses
system.l2.overall_mshr_misses::cpu.data        130140                       # number of overall MSHR misses
system.l2.overall_mshr_misses::total           130496                       # number of overall MSHR misses
system.l2.ReadExReq_mshr_miss_latency::cpu.data   2821509000                       # number of ReadExReq MSHR miss cycles
system.l2.ReadExReq_mshr_miss_latency::total   2821509000                       # number of ReadExReq MSHR miss cycles
system.l2.ReadCleanReq_mshr_miss_latency::cpu.inst     70102000                       # number of ReadCleanReq MSHR miss cycles
system.l2.ReadCleanReq_mshr_miss_latency::total     70102000                       # number of ReadCleanReq MSHR miss cycles
system.l2.ReadSharedReq_mshr_miss_latency::cpu.data   5367171500                       # number of ReadSharedReq MSHR miss cycles
system.l2.ReadSharedReq_mshr_miss_latency::total   5367171500                       # number of ReadSharedReq MSHR miss cycles
system.l2.demand_mshr_miss_latency::cpu.inst     70102000                       # number of demand (read+write) MSHR miss cycles
system.l2.demand_mshr_miss_latency::cpu.data   8188680500                       # number of demand (read+write) MSHR miss cycles
system.l2.demand_mshr_miss_latency::total   8258782500                       # number of demand (read+write) MSHR miss cycles
system.l2.overall_mshr_miss_latency::cpu.inst     70102000                       # number of overall MSHR miss cycles
system.l2.overall_mshr_miss_latency::cpu.data   8188680500                       # number of overall MSHR miss cycles
system.l2.overall_mshr_miss_latency::total   8258782500                       # number of overall MSHR miss cycles
system.l2.ReadExReq_mshr_miss_rate::cpu.data     0.956877                       # mshr miss rate for ReadExReq accesses
system.l2.ReadExReq_mshr_miss_rate::total     0.956877                       # mshr miss rate for ReadExReq accesses
system.l2.ReadCleanReq_mshr_miss_rate::cpu.inst            1                       # mshr miss rate for ReadCleanReq accesses
system.l2.ReadCleanReq_mshr_miss_rate::total            1                       # mshr miss rate for ReadCleanReq accesses
system.l2.ReadSharedReq_mshr_miss_rate::cpu.data     0.701303                       # mshr miss rate for ReadSharedReq accesses
system.l2.ReadSharedReq_mshr_miss_rate::total     0.701303                       # mshr miss rate for ReadSharedReq accesses
system.l2.demand_mshr_miss_rate::cpu.inst            1                       # mshr miss rate for demand accesses
system.l2.demand_mshr_miss_rate::cpu.data     0.729889                       # mshr miss rate for demand accesses
system.l2.demand_mshr_miss_rate::total       0.730428                       # mshr miss rate for demand accesses
system.l2.overall_mshr_miss_rate::cpu.inst            1                       # mshr miss rate for overall accesses
system.l2.overall_mshr_miss_rate::cpu.data     0.729889                       # mshr miss rate for overall accesses
system.l2.overall_mshr_miss_rate::total      0.730428                       # mshr miss rate for overall accesses
system.l2.ReadExReq_avg_mshr_miss_latency::cpu.data 147854.582613                       # average ReadExReq mshr miss latency
system.l2.ReadExReq_avg_mshr_miss_latency::total 147854.582613                       # average ReadExReq mshr miss latency
system.l2.ReadCleanReq_avg_mshr_miss_latency::cpu.inst 196915.730337                       # average ReadCleanReq mshr miss latency
system.l2.ReadCleanReq_avg_mshr_miss_latency::total 196915.730337                       # average ReadCleanReq mshr miss latency
system.l2.ReadSharedReq_avg_mshr_miss_latency::cpu.data 48328.079275                       # average ReadSharedReq mshr miss latency
system.l2.ReadSharedReq_avg_mshr_miss_latency::total 48328.079275                       # average ReadSharedReq mshr miss latency
system.l2.demand_avg_mshr_miss_latency::cpu.inst 196915.730337                       # average overall mshr miss latency
system.l2.demand_avg_mshr_miss_latency::cpu.data 62922.087752                       # average overall mshr miss latency
system.l2.demand_avg_mshr_miss_latency::total 63287.629506                       # average overall mshr miss latency
system.l2.overall_avg_mshr_miss_latency::cpu.inst 196915.730337                       # average overall mshr miss latency
system.l2.overall_avg_mshr_miss_latency::cpu.data 62922.087752                       # average overall mshr miss latency
system.l2.overall_avg_mshr_miss_latency::total 63287.629506                       # average overall mshr miss latency
system.l2.replacements                         128490                       # number of replacements
system.l3.tags.pwrStateResidencyTicks::UNDEFINED 289085141000                       # Cumulative time (in ticks) in various power states
system.l3.tags.tagsinuse                 15482.758499                       # Cycle average of tags in use
system.l3.tags.total_refs                      258622                       # Total number of references to valid blocks.
system.l3.tags.sampled_refs                     27539                       # Sample count of references to valid blocks.
system.l3.tags.avg_refs                      9.391118                       # Average number of references to valid blocks.
system.l3.tags.warmup_cycle                    419000                       # Cycle when the warmup percentage was hit.
system.l3.tags.occ_blocks::writebacks      201.120193                       # Average occupied blocks per requestor
system.l3.tags.occ_blocks::cpu.inst         23.705940                       # Average occupied blocks per requestor
system.l3.tags.occ_blocks::cpu.data      15257.932365                       # Average occupied blocks per requestor
system.l3.tags.occ_percent::writebacks       0.012275                       # Average percentage of cache occupancy
system.l3.tags.occ_percent::cpu.inst         0.001447                       # Average percentage of cache occupancy
system.l3.tags.occ_percent::cpu.data         0.931270                       # Average percentage of cache occupancy
system.l3.tags.occ_percent::total            0.944993                       # Average percentage of cache occupancy
system.l3.tags.occ_task_id_blocks::1024         16384                       # Occupied blocks per task id
system.l3.tags.age_task_id_blocks_1024::0           26                       # Occupied blocks per task id
system.l3.tags.age_task_id_blocks_1024::1           39                       # Occupied blocks per task id
system.l3.tags.age_task_id_blocks_1024::3           27                       # Occupied blocks per task id
system.l3.tags.age_task_id_blocks_1024::4        16292                       # Occupied blocks per task id
system.l3.tags.occ_task_id_percent::1024            1                       # Percentage of cache occupancy per task id
system.l3.tags.tag_accesses                    286209                       # Number of tag accesses
system.l3.tags.data_accesses                   286209                       # Number of data accesses
system.l3.pwrStateResidencyTicks::UNDEFINED 289085141000                       # Cumulative time (in ticks) in various power states
system.l3.WritebackDirty_hits::writebacks       127619                       # number of WritebackDirty hits
system.l3.WritebackDirty_hits::total           127619                       # number of WritebackDirty hits
system.l3.ReadExReq_hits::cpu.data                 81                       # number of ReadExReq hits
system.l3.ReadExReq_hits::total                    81                       # number of ReadExReq hits
system.l3.ReadSharedReq_hits::cpu.data         104934                       # number of ReadSharedReq hits
system.l3.ReadSharedReq_hits::total            104934                       # number of ReadSharedReq hits
system.l3.demand_hits::cpu.data                105015                       # number of demand (read+write) hits
system.l3.demand_hits::total                   105015                       # number of demand (read+write) hits
system.l3.overall_hits::cpu.data               105015                       # number of overall hits
system.l3.overall_hits::total                  105015                       # number of overall hits
system.l3.ReadExReq_misses::cpu.data            19002                       # number of ReadExReq misses
system.l3.ReadExReq_misses::total               19002                       # number of ReadExReq misses
system.l3.ReadSharedReq_misses::cpu.inst          356                       # number of ReadSharedReq misses
system.l3.ReadSharedReq_misses::cpu.data         6123                       # number of ReadSharedReq misses
system.l3.ReadSharedReq_misses::total            6479                       # number of ReadSharedReq misses
system.l3.demand_misses::cpu.inst                 356                       # number of demand (read+write) misses
system.l3.demand_misses::cpu.data               25125                       # number of demand (read+write) misses
system.l3.demand_misses::total                  25481                       # number of demand (read+write) misses
system.l3.overall_misses::cpu.inst                356                       # number of overall misses
system.l3.overall_misses::cpu.data              25125                       # number of overall misses
system.l3.overall_misses::total                 25481                       # number of overall misses
system.l3.ReadExReq_miss_latency::cpu.data   2610219000                       # number of ReadExReq miss cycles
system.l3.ReadExReq_miss_latency::total    2610219000                       # number of ReadExReq miss cycles
system.l3.ReadSharedReq_miss_latency::cpu.inst     66186000                       # number of ReadSharedReq miss cycles
system.l3.ReadSharedReq_miss_latency::cpu.data   2361666500                       # number of ReadSharedReq miss cycles
system.l3.ReadSharedReq_miss_latency::total   2427852500                       # number of ReadSharedReq miss cycles
system.l3.demand_miss_latency::cpu.inst      66186000                       # number of demand (read+write) miss cycles
system.l3.demand_miss_latency::cpu.data    4971885500                       # number of demand (read+write) miss cycles
system.l3.demand_miss_latency::total       5038071500                       # number of demand (read+write) miss cycles
system.l3.overall_miss_latency::cpu.inst     66186000                       # number of overall miss cycles
system.l3.overall_miss_latency::cpu.data   4971885500                       # number of overall miss cycles
system.l3.overall_miss_latency::total      5038071500                       # number of overall miss cycles
system.l3.WritebackDirty_accesses::writebacks       127619                       # number of WritebackDirty accesses(hits+misses)
system.l3.WritebackDirty_accesses::total       127619                       # number of WritebackDirty accesses(hits+misses)
system.l3.ReadExReq_accesses::cpu.data          19083                       # number of ReadExReq accesses(hits+misses)
system.l3.ReadExReq_accesses::total             19083                       # number of ReadExReq accesses(hits+misses)
system.l3.ReadSharedReq_accesses::cpu.inst          356                       # number of ReadSharedReq accesses(hits+misses)
system.l3.ReadSharedReq_accesses::cpu.data       111057                       # number of ReadSharedReq accesses(hits+misses)
system.l3.ReadSharedReq_accesses::total        111413                       # number of ReadSharedReq accesses(hits+misses)
system.l3.demand_accesses::cpu.inst               356                       # number of demand (read+write) accesses
system.l3.demand_accesses::cpu.data            130140                       # number of demand (read+write) accesses
system.l3.demand_accesses::total               130496                       # number of demand (read+write) accesses
system.l3.overall_accesses::cpu.inst              356                       # number of overall (read+write) accesses
system.l3.overall_accesses::cpu.data           130140                       # number of overall (read+write) accesses
system.l3.overall_accesses::total              130496                       # number of overall (read+write) accesses
system.l3.ReadExReq_miss_rate::cpu.data      0.995755                       # miss rate for ReadExReq accesses
system.l3.ReadExReq_miss_rate::total         0.995755                       # miss rate for ReadExReq accesses
system.l3.ReadSharedReq_miss_rate::cpu.inst            1                       # miss rate for ReadSharedReq accesses
system.l3.ReadSharedReq_miss_rate::cpu.data     0.055134                       # miss rate for ReadSharedReq accesses
system.l3.ReadSharedReq_miss_rate::total     0.058153                       # miss rate for ReadSharedReq accesses
system.l3.demand_miss_rate::cpu.inst                1                       # miss rate for demand accesses
system.l3.demand_miss_rate::cpu.data         0.193061                       # miss rate for demand accesses
system.l3.demand_miss_rate::total            0.195263                       # miss rate for demand accesses
system.l3.overall_miss_rate::cpu.inst               1                       # miss rate for overall accesses
system.l3.overall_miss_rate::cpu.data        0.193061                       # miss rate for overall accesses
system.l3.overall_miss_rate::total           0.195263                       # miss rate for overall accesses
system.l3.ReadExReq_avg_miss_latency::cpu.data 137365.487843                       # average ReadExReq miss latency
system.l3.ReadExReq_avg_miss_latency::total 137365.487843                       # average ReadExReq miss latency
system.l3.ReadSharedReq_avg_miss_latency::cpu.inst 185915.730337                       # average ReadSharedReq miss latency
system.l3.ReadSharedReq_avg_miss_latency::cpu.data 385704.148293                       # average ReadSharedReq miss latency
system.l3.ReadSharedReq_avg_miss_latency::total 374726.423831                       # average ReadSharedReq miss latency
system.l3.demand_avg_miss_latency::cpu.inst 185915.730337                       # average overall miss latency
system.l3.demand_avg_miss_latency::cpu.data 197885.990050                       # average overall miss latency
system.l3.demand_avg_miss_latency::total 197718.751226                       # average overall miss latency
system.l3.overall_avg_miss_latency::cpu.inst 185915.730337                       # average overall miss latency
system.l3.overall_avg_miss_latency::cpu.data 197885.990050                       # average overall miss latency
system.l3.overall_avg_miss_latency::total 197718.751226                       # average overall miss latency
system.l3.blocked_cycles::no_mshrs                  0                       # number of cycles access was blocked
system.l3.blocked_cycles::no_targets                0                       # number of cycles access was blocked
system.l3.blocked::no_mshrs                         0                       # number of cycles access was blocked
system.l3.blocked::no_targets                       0                       # number of cycles access was blocked
system.l3.avg_blocked_cycles::no_mshrs            nan                       # average number of cycles each access was blocked
system.l3.avg_blocked_cycles::no_targets          nan                       # average number of cycles each access was blocked
system.l3.writebacks::writebacks                 8616                       # number of writebacks
system.l3.writebacks::total                      8616                       # number of writebacks
system.l3.CleanEvict_mshr_misses::writebacks           48                       # number of CleanEvict MSHR misses
system.l3.CleanEvict_mshr_misses::total            48                       # number of CleanEvict MSHR misses
system.l3.ReadExReq_mshr_misses::cpu.data        19002                       # number of ReadExReq MSHR misses
system.l3.ReadExReq_mshr_misses::total          19002                       # number of ReadExReq MSHR misses
system.l3.ReadSharedReq_mshr_misses::cpu.inst          356                       # number of ReadSharedReq MSHR misses
system.l3.ReadSharedReq_mshr_misses::cpu.data         6123                       # number of ReadSharedReq MSHR misses
system.l3.ReadSharedReq_mshr_misses::total         6479                       # number of ReadSharedReq MSHR misses
system.l3.demand_mshr_misses::cpu.inst            356                       # number of demand (read+write) MSHR misses
system.l3.demand_mshr_misses::cpu.data          25125                       # number of demand (read+write) MSHR misses
system.l3.demand_mshr_misses::total             25481                       # number of demand (read+write) MSHR misses
system.l3.overall_mshr_misses::cpu.inst           356                       # number of overall MSHR misses
system.l3.overall_mshr_misses::cpu.data         25125                       # number of overall MSHR misses
system.l3.overall_mshr_misses::total            25481                       # number of overall MSHR misses
system.l3.ReadExReq_mshr_miss_latency::cpu.data   2306187000                       # number of ReadExReq MSHR miss cycles
system.l3.ReadExReq_mshr_miss_latency::total   2306187000                       # number of ReadExReq MSHR miss cycles
system.l3.ReadSharedReq_mshr_miss_latency::cpu.inst     60490000                       # number of ReadSharedReq MSHR miss cycles
system.l3.ReadSharedReq_mshr_miss_latency::cpu.data   2263698500                       # number of ReadSharedReq MSHR miss cycles
system.l3.ReadSharedReq_mshr_miss_latency::total   2324188500                       # number of ReadSharedReq MSHR miss cycles
system.l3.demand_mshr_miss_latency::cpu.inst     60490000                       # number of demand (read+write) MSHR miss cycles
system.l3.demand_mshr_miss_latency::cpu.data   4569885500                       # number of demand (read+write) MSHR miss cycles
system.l3.demand_mshr_miss_latency::total   4630375500                       # number of demand (read+write) MSHR miss cycles
system.l3.overall_mshr_miss_latency::cpu.inst     60490000                       # number of overall MSHR miss cycles
system.l3.overall_mshr_miss_latency::cpu.data   4569885500                       # number of overall MSHR miss cycles
system.l3.overall_mshr_miss_latency::total   4630375500                       # number of overall MSHR miss cycles
system.l3.CleanEvict_mshr_miss_rate::writebacks          inf                       # mshr miss rate for CleanEvict accesses
system.l3.CleanEvict_mshr_miss_rate::total          inf                       # mshr miss rate for CleanEvict accesses
system.l3.ReadExReq_mshr_miss_rate::cpu.data     0.995755                       # mshr miss rate for ReadExReq accesses
system.l3.ReadExReq_mshr_miss_rate::total     0.995755                       # mshr miss rate for ReadExReq accesses
system.l3.ReadSharedReq_mshr_miss_rate::cpu.inst            1                       # mshr miss rate for ReadSharedReq accesses
system.l3.ReadSharedReq_mshr_miss_rate::cpu.data     0.055134                       # mshr miss rate for ReadSharedReq accesses
system.l3.ReadSharedReq_mshr_miss_rate::total     0.058153                       # mshr miss rate for ReadSharedReq accesses
system.l3.demand_mshr_miss_rate::cpu.inst            1                       # mshr miss rate for demand accesses
system.l3.demand_mshr_miss_rate::cpu.data     0.193061                       # mshr miss rate for demand accesses
system.l3.demand_mshr_miss_rate::total       0.195263                       # mshr miss rate for demand accesses
system.l3.overall_mshr_miss_rate::cpu.inst            1                       # mshr miss rate for overall accesses
system.l3.overall_mshr_miss_rate::cpu.data     0.193061                       # mshr miss rate for overall accesses
system.l3.overall_mshr_miss_rate::total      0.195263                       # mshr miss rate for overall accesses
system.l3.ReadExReq_avg_mshr_miss_latency::cpu.data 121365.487843                       # average ReadExReq mshr miss latency
system.l3.ReadExReq_avg_mshr_miss_latency::total 121365.487843                       # average ReadExReq mshr miss latency
system.l3.ReadSharedReq_avg_mshr_miss_latency::cpu.inst 169915.730337                       # average ReadSharedReq mshr miss latency
system.l3.ReadSharedReq_avg_mshr_miss_latency::cpu.data 369704.148293                       # average ReadSharedReq mshr miss latency
system.l3.ReadSharedReq_avg_mshr_miss_latency::total 358726.423831                       # average ReadSharedReq mshr miss latency
system.l3.demand_avg_mshr_miss_latency::cpu.inst 169915.730337                       # average overall mshr miss latency
system.l3.demand_avg_mshr_miss_latency::cpu.data 181885.990050                       # average overall mshr miss latency
system.l3.demand_avg_mshr_miss_latency::total 181718.751226                       # average overall mshr miss latency
system.l3.overall_avg_mshr_miss_latency::cpu.inst 169915.730337                       # average overall mshr miss latency
system.l3.overall_avg_mshr_miss_latency::cpu.data 181885.990050                       # average overall mshr miss latency
system.l3.overall_avg_mshr_miss_latency::total 181718.751226                       # average overall mshr miss latency
system.l3.replacements                          11155                       # number of replacements
system.membus.snoop_filter.tot_requests         35129                       # Total number of requests made to the snoop filter.
system.membus.snoop_filter.hit_single_requests         9648                       # Number of requests hitting in the snoop filter with a single holder of the requested data.
system.membus.snoop_filter.hit_multi_requests            0                       # Number of requests hitting in the snoop filter with multiple (>1) holders of the requested data.
system.membus.snoop_filter.tot_snoops               0                       # Total number of snoops made to the snoop filter.
system.membus.snoop_filter.hit_single_snoops            0                       # Number of snoops hitting in the snoop filter with a single holder of the requested data.
system.membus.snoop_filter.hit_multi_snoops            0                       # Number of snoops hitting in the snoop filter with multiple (>1) holders of the requested data.
system.membus.pwrStateResidencyTicks::UNDEFINED 289085141000                       # Cumulative time (in ticks) in various power states
system.membus.trans_dist::ReadResp               6479                       # Transaction distribution
system.membus.trans_dist::WritebackDirty         8616                       # Transaction distribution
system.membus.trans_dist::CleanEvict              167                       # Transaction distribution
system.membus.trans_dist::ReadExReq             19002                       # Transaction distribution
system.membus.trans_dist::ReadExResp            19002                       # Transaction distribution
system.membus.trans_dist::ReadSharedReq          6479                       # Transaction distribution
system.membus.pkt_count_system.l3.mem_side::system.mem_ctrls.port        59745                       # Packet count per connected master and slave (bytes)
system.membus.pkt_count_system.l3.mem_side::total        59745                       # Packet count per connected master and slave (bytes)
system.membus.pkt_count::total                  59745                       # Packet count per connected master and slave (bytes)
system.membus.pkt_size_system.l3.mem_side::system.mem_ctrls.port      2182208                       # Cumulative packet size per connected master and slave (bytes)
system.membus.pkt_size_system.l3.mem_side::total      2182208                       # Cumulative packet size per connected master and slave (bytes)
system.membus.pkt_size::total                 2182208                       # Cumulative packet size per connected master and slave (bytes)
system.membus.snoops                                0                       # Total snoops (count)
system.membus.snoopTraffic                          0                       # Total snoop traffic (bytes)
system.membus.snoop_fanout::samples             25481                       # Request fanout histogram
system.membus.snoop_fanout::mean                    0                       # Request fanout histogram
system.membus.snoop_fanout::stdev                   0                       # Request fanout histogram
system.membus.snoop_fanout::underflows              0      0.00%      0.00% # Request fanout histogram
system.membus.snoop_fanout::0                   25481    100.00%    100.00% # Request fanout histogram
system.membus.snoop_fanout::1                       0      0.00%    100.00% # Request fanout histogram
system.membus.snoop_fanout::overflows               0      0.00%    100.00% # Request fanout histogram
system.membus.snoop_fanout::min_value               0                       # Request fanout histogram
system.membus.snoop_fanout::max_value               0                       # Request fanout histogram
system.membus.snoop_fanout::total               25481                       # Request fanout histogram
system.membus.reqLayer2.occupancy            82005500                       # Layer occupancy (ticks)
system.membus.reqLayer2.utilization               0.0                       # Layer utilization (%)
system.membus.respLayer1.occupancy          139209000                       # Layer occupancy (ticks)
system.membus.respLayer1.utilization              0.0                       # Layer utilization (%)
system.tol2bus.snoop_filter.tot_requests       450315                       # Total number of requests made to the snoop filter.
system.tol2bus.snoop_filter.hit_single_requests       271658                       # Number of requests hitting in the snoop filter with a single holder of the requested data.
system.tol2bus.snoop_filter.hit_multi_requests            0                       # Number of requests hitting in the snoop filter with multiple (>1) holders of the requested data.
system.tol2bus.snoop_filter.tot_snoops           1422                       # Total number of snoops made to the snoop filter.
system.tol2bus.snoop_filter.hit_single_snoops         1422                       # Number of snoops hitting in the snoop filter with a single holder of the requested data.
system.tol2bus.snoop_filter.hit_multi_snoops            0                       # Number of snoops hitting in the snoop filter with multiple (>1) holders of the requested data.
system.tol2bus.pwrStateResidencyTicks::UNDEFINED 289085141000                       # Cumulative time (in ticks) in various power states
system.tol2bus.trans_dist::ReadResp            158714                       # Transaction distribution
system.tol2bus.trans_dist::WritebackDirty       294060                       # Transaction distribution
system.tol2bus.trans_dist::WritebackClean           44                       # Transaction distribution
system.tol2bus.trans_dist::CleanEvict           14639                       # Transaction distribution
system.tol2bus.trans_dist::UpgradeReq           93825                       # Transaction distribution
system.tol2bus.trans_dist::UpgradeResp          93825                       # Transaction distribution
system.tol2bus.trans_dist::ReadExReq            19943                       # Transaction distribution
system.tol2bus.trans_dist::ReadExResp           19943                       # Transaction distribution
system.tol2bus.trans_dist::ReadCleanReq           356                       # Transaction distribution
system.tol2bus.trans_dist::ReadSharedReq       158358                       # Transaction distribution
system.tol2bus.pkt_count_system.cpu.icache.mem_side::system.l2.cpu_side          756                       # Packet count per connected master and slave (bytes)
system.tol2bus.pkt_count_system.cpu.dcache.mem_side::system.l2.cpu_side       722041                       # Packet count per connected master and slave (bytes)
system.tol2bus.pkt_count::total                722797                       # Packet count per connected master and slave (bytes)
system.tol2bus.pkt_size_system.cpu.icache.mem_side::system.l2.cpu_side        25600                       # Cumulative packet size per connected master and slave (bytes)
system.tol2bus.pkt_size_system.cpu.dcache.mem_side::system.l2.cpu_side     22063488                       # Cumulative packet size per connected master and slave (bytes)
system.tol2bus.pkt_size::total               22089088                       # Cumulative packet size per connected master and slave (bytes)
system.tol2bus.snoops                          130910                       # Total snoops (count)
system.tol2bus.snoopTraffic                   8167616                       # Total snoop traffic (bytes)
system.tol2bus.snoop_fanout::samples           403392                       # Request fanout histogram
system.tol2bus.snoop_fanout::mean            0.003525                       # Request fanout histogram
system.tol2bus.snoop_fanout::stdev           0.059268                       # Request fanout histogram
system.tol2bus.snoop_fanout::underflows             0      0.00%      0.00% # Request fanout histogram
system.tol2bus.snoop_fanout::0                 401970     99.65%     99.65% # Request fanout histogram
system.tol2bus.snoop_fanout::1                   1422      0.35%    100.00% # Request fanout histogram
system.tol2bus.snoop_fanout::2                      0      0.00%    100.00% # Request fanout histogram
system.tol2bus.snoop_fanout::3                      0      0.00%    100.00% # Request fanout histogram
system.tol2bus.snoop_fanout::4                      0      0.00%    100.00% # Request fanout histogram
system.tol2bus.snoop_fanout::overflows              0      0.00%    100.00% # Request fanout histogram
system.tol2bus.snoop_fanout::min_value              0                       # Request fanout histogram
system.tol2bus.snoop_fanout::max_value              1                       # Request fanout histogram
system.tol2bus.snoop_fanout::total             403392                       # Request fanout histogram
system.tol2bus.reqLayer0.occupancy          391642500                       # Layer occupancy (ticks)
system.tol2bus.reqLayer0.utilization              0.1                       # Layer utilization (%)
system.tol2bus.respLayer0.occupancy            534000                       # Layer occupancy (ticks)
system.tol2bus.respLayer0.utilization             0.0                       # Layer utilization (%)
system.tol2bus.respLayer1.occupancy         314364000                       # Layer occupancy (ticks)
system.tol2bus.respLayer1.utilization             0.1                       # Layer utilization (%)
system.tol3bus.snoop_filter.tot_requests       258670                       # Total number of requests made to the snoop filter.
system.tol3bus.snoop_filter.hit_single_requests       128174                       # Number of requests hitting in the snoop filter with a single holder of the requested data.
system.tol3bus.snoop_filter.hit_multi_requests            0                       # Number of requests hitting in the snoop filter with multiple (>1) holders of the requested data.
system.tol3bus.snoop_filter.tot_snoops           2420                       # Total number of snoops made to the snoop filter.
system.tol3bus.snoop_filter.hit_single_snoops         2420                       # Number of snoops hitting in the snoop filter with a single holder of the requested data.
system.tol3bus.snoop_filter.hit_multi_snoops            0                       # Number of snoops hitting in the snoop filter with multiple (>1) holders of the requested data.
system.tol3bus.pwrStateResidencyTicks::UNDEFINED 289085141000                       # Cumulative time (in ticks) in various power states
system.tol3bus.trans_dist::ReadResp            111413                       # Transaction distribution
system.tol3bus.trans_dist::WritebackDirty       136235                       # Transaction distribution
system.tol3bus.trans_dist::CleanEvict            3094                       # Transaction distribution
system.tol3bus.trans_dist::ReadExReq            19083                       # Transaction distribution
system.tol3bus.trans_dist::ReadExResp           19083                       # Transaction distribution
system.tol3bus.trans_dist::ReadSharedReq       111413                       # Transaction distribution
system.tol3bus.pkt_count_system.l2.mem_side::system.l3.cpu_side       389166                       # Packet count per connected master and slave (bytes)
system.tol3bus.pkt_size_system.l2.mem_side::system.l3.cpu_side     16519360                       # Cumulative packet size per connected master and slave (bytes)
system.tol3bus.snoops                           11155                       # Total snoops (count)
system.tol3bus.snoopTraffic                    551424                       # Total snoop traffic (bytes)
system.tol3bus.snoop_fanout::samples           141651                       # Request fanout histogram
system.tol3bus.snoop_fanout::mean            0.017084                       # Request fanout histogram
system.tol3bus.snoop_fanout::stdev           0.129586                       # Request fanout histogram
system.tol3bus.snoop_fanout::underflows             0      0.00%      0.00% # Request fanout histogram
system.tol3bus.snoop_fanout::0                 139231     98.29%     98.29% # Request fanout histogram
system.tol3bus.snoop_fanout::1                   2420      1.71%    100.00% # Request fanout histogram
system.tol3bus.snoop_fanout::overflows              0      0.00%    100.00% # Request fanout histogram
system.tol3bus.snoop_fanout::min_value              0                       # Request fanout histogram
system.tol3bus.snoop_fanout::max_value              1                       # Request fanout histogram
system.tol3bus.snoop_fanout::total             141651                       # Request fanout histogram
system.tol3bus.reqLayer0.occupancy          256954000                       # Layer occupancy (ticks)
system.tol3bus.reqLayer0.utilization              0.1                       # Layer utilization (%)
system.tol3bus.respLayer0.occupancy         195744000                       # Layer occupancy (ticks)
system.tol3bus.respLayer0.utilization             0.1                       # Layer utilization (%)

---------- End Simulation Statistics   ----------